62

Zr       0.00000000      -0.00000000       2.53630000
O      -2.02812000      -0.00000000       3.73830000
O       2.02812000      -0.00000000       3.73830000
O       0.00000000      -2.02812000       3.73830000
O      -0.00000000       3.73830000       2.02812000
O       0.00000000      -3.73830000       2.02812000
O       0.00000000       2.02812000       3.73830000
O       3.73830000       0.00000000       2.02812000
O      -3.73830000      -0.00000000       2.02812000
O       1.34844000      -1.34844000       1.34844000
O       1.34844000       1.34844000       1.34844000
O      -1.34844000      -1.34844000       1.34844000
O      -1.34844000       1.34844000       1.34844000
C      -3.28836000      -0.00000000       3.28836000
C       3.28836000      -0.00000000       3.28836000
C       0.00000000      -3.28836000       3.28836000
C      -0.00000000       3.28836000       3.28836000
Zr      -0.00000000       2.53630000       0.00000000
Zr       2.53630000       0.00000000      -0.00000000
O       2.02812000       3.73830000       0.00000000
O       3.73830000       2.02812000      -0.00000000
C       3.28836000       3.28836000      -0.00000000
Zr      -0.00000000       0.00000000      -2.53630000
Zr       0.00000000      -2.53630000      -0.00000000
Zr      -2.53630000      -0.00000000       0.00000000
O      -2.02812000       0.00000000      -3.73830000
O      -2.02812000      -3.73830000      -0.00000000
O      -2.02812000       3.73830000       0.00000000
O       2.02812000       0.00000000      -3.73830000
O       2.02812000      -3.73830000      -0.00000000
O       0.00000000      -3.73830000      -2.02812000
O      -0.00000000       2.02812000      -3.73830000
O      -0.00000000       3.73830000      -2.02812000
O      -0.00000000      -2.02812000      -3.73830000
O      -3.73830000      -2.02812000       0.00000000
O       3.73830000       0.00000000      -2.02812000
O       3.73830000      -2.02812000      -0.00000000
O      -3.73830000       2.02812000       0.00000000
O      -3.73830000      -0.00000000      -2.02812000
O       1.34844000       1.34844000      -1.34844000
O       1.34844000      -1.34844000      -1.34844000
O      -1.34844000      -1.34844000      -1.34844000
O      -1.34844000       1.34844000      -1.34844000
C      -3.28836000       0.00000000      -3.28836000
C      -3.28836000      -3.28836000       0.00000000
C      -3.28836000       3.28836000       0.00000000
C       3.28836000       0.00000000      -3.28836000
C       3.28836000      -3.28836000      -0.00000000
C       0.00000000      -3.28836000      -3.28836000
C      -0.00000000       3.28836000      -3.28836000
X      -4.05280000       0.00000000       4.05280000
X       4.05280000       0.00000000       4.05280000
X      -0.00000000      -4.05280000       4.05280000
X      -0.00000000       4.05280000       4.05280000
X       4.05280000       4.05280000      -0.00000000
X      -4.05280000       0.00000000      -4.05280000
X      -4.05280000      -4.05280000      -0.00000000
X      -4.05280000       4.05280000      -0.00000000
X       4.05280000       0.00000000      -4.05280000
X       4.05280000      -4.05280000      -0.00000000
X      -0.00000000      -4.05280000      -4.05280000
X      -0.00000000       4.05280000      -4.05280000
