8

H       0.42706066      -0.39618577       1.43026663
C       0.54156625      -0.41554693       0.34525825
C      -0.54156625       0.41554693      -0.34525825
H      -0.42706066       0.39618577      -1.43026663
F      -0.48487097       1.69235610       0.11304660
F       0.48487097      -1.69235610      -0.11304660
Cl      -2.15869327      -0.27923866       0.04199062
Cl       2.15869327       0.27923866      -0.04199062
