18

C       1.26444000      -0.73002000      -0.23528000
C       1.26444000       0.73002000       0.23528000
C       0.00000000       1.46005000      -0.23528000
C      -1.26444000       0.73002000       0.23528000
C      -1.26444000      -0.73002000      -0.23528000
C      -0.00000000      -1.46005000       0.23528000
H       2.15975000      -1.24693000       0.17226000
H       1.32436000      -0.76462000      -1.34548000
H       2.15975000       1.24693000      -0.17226000
H       1.32436000       0.76462000       1.34548000
H       0.00000000       1.52924000      -1.34548000
H       0.00000000       2.49387000       0.17226000
H      -2.15975000       1.24693000      -0.17226000
H      -1.32436000       0.76462000       1.34548000
H      -1.32436000      -0.76462000      -1.34548000
H      -2.15975000      -1.24693000       0.17226000
H      -0.00000000      -1.52924000       1.34548000
H      -0.00000000      -2.49387000      -0.17226000
